<?xml version="1.0" encoding="UTF-8"?>

<!-- generated on Mon Dec 14 13:48:21 2020 by Eclipse SUMO netconvert Version v1_1_0+0000-2147d155b1
<configuration xmlns:xsi="http://www.w3.org/2001/XMLSchema-instance" xsi:noNamespaceSchemaLocation="http://sumo.dlr.de/xsd/netconvertConfiguration.xsd">

    <input>
        <node-files value="cross.nod.xml"/>
        <edge-files value="cross.edg.xml"/>
        <connection-files value="cross.con.xml"/>
    </input>

    <output>
        <output-file value="cross.net.xml"/>
    </output>

</configuration>
-->

<net version="1.1" junctionCornerDetail="5" limitTurnSpeed="5.50" xmlns:xsi="http://www.w3.org/2001/XMLSchema-instance" xsi:noNamespaceSchemaLocation="http://sumo.dlr.de/xsd/net_file.xsd">

    <location netOffset="500.00,1000.00" convBoundary="0.00,0.00,1000.00,2000.00" origBoundary="-500.00,-1000.00,500.00,1000.00" projParameter="!"/>

    <edge id=":0_0" function="internal">
        <lane id=":0_0_0" index="0" speed="6.51" length="9.03" shape="492.00,1010.40 491.65,1007.95 490.60,1006.20 488.85,1005.15 486.40,1004.80"/>
    </edge>
    <edge id=":0_1" function="internal">
        <lane id=":0_1_0" index="0" speed="16.72" length="20.80" shape="492.00,1010.40 492.00,989.60"/>
        <lane id=":0_1_1" index="1" speed="16.72" length="20.80" shape="495.20,1010.40 495.20,989.60"/>
        <lane id=":0_1_2" index="2" speed="16.72" length="20.80" shape="498.40,1010.40 498.40,989.60"/>
    </edge>
    <edge id=":0_4" function="internal">
        <lane id=":0_4_0" index="0" speed="9.84" length="6.41" shape="498.40,1010.40 499.35,1005.15 500.00,1004.29"/>
    </edge>
    <edge id=":0_18" function="internal">
        <lane id=":0_18_0" index="0" speed="9.84" length="15.58" shape="500.00,1004.29 502.20,1001.40 506.95,999.15 513.60,998.40"/>
    </edge>
    <edge id=":0_5" function="internal">
        <lane id=":0_5_0" index="0" speed="6.51" length="9.03" shape="513.60,1004.80 511.15,1005.15 509.40,1006.20 508.35,1007.95 508.00,1010.40"/>
    </edge>
    <edge id=":0_6" function="internal">
        <lane id=":0_6_0" index="0" speed="16.72" length="27.20" shape="513.60,1004.80 486.40,1004.80"/>
        <lane id=":0_6_1" index="1" speed="16.72" length="27.20" shape="513.60,1001.60 486.40,1001.60"/>
    </edge>
    <edge id=":0_8" function="internal">
        <lane id=":0_8_0" index="0" speed="9.84" length="8.68" shape="513.60,1001.60 506.95,1000.85 505.16,1000.00"/>
    </edge>
    <edge id=":0_19" function="internal">
        <lane id=":0_19_0" index="0" speed="9.84" length="13.32" shape="505.16,1000.00 502.20,998.60 499.35,994.85 498.40,989.60"/>
    </edge>
    <edge id=":0_9" function="internal">
        <lane id=":0_9_0" index="0" speed="6.51" length="9.03" shape="508.00,989.60 508.35,992.05 509.40,993.80 511.15,994.85 513.60,995.20"/>
    </edge>
    <edge id=":0_10" function="internal">
        <lane id=":0_10_0" index="0" speed="16.72" length="20.80" shape="508.00,989.60 508.00,1010.40"/>
        <lane id=":0_10_1" index="1" speed="16.72" length="20.80" shape="504.80,989.60 504.80,1010.40"/>
        <lane id=":0_10_2" index="2" speed="16.72" length="20.80" shape="501.60,989.60 501.60,1010.40"/>
    </edge>
    <edge id=":0_13" function="internal">
        <lane id=":0_13_0" index="0" speed="9.84" length="6.41" shape="501.60,989.60 500.65,994.85 500.00,995.71"/>
    </edge>
    <edge id=":0_20" function="internal">
        <lane id=":0_20_0" index="0" speed="9.84" length="15.58" shape="500.00,995.71 497.80,998.60 493.05,1000.85 486.40,1001.60"/>
    </edge>
    <edge id=":0_14" function="internal">
        <lane id=":0_14_0" index="0" speed="6.51" length="9.03" shape="486.40,995.20 488.85,994.85 490.60,993.80 491.65,992.05 492.00,989.60"/>
    </edge>
    <edge id=":0_15" function="internal">
        <lane id=":0_15_0" index="0" speed="16.72" length="27.20" shape="486.40,995.20 513.60,995.20"/>
        <lane id=":0_15_1" index="1" speed="16.72" length="27.20" shape="486.40,998.40 513.60,998.40"/>
    </edge>
    <edge id=":0_17" function="internal">
        <lane id=":0_17_0" index="0" speed="9.84" length="8.68" shape="486.40,998.40 493.05,999.15 494.84,1000.00"/>
    </edge>
    <edge id=":0_21" function="internal">
        <lane id=":0_21_0" index="0" speed="9.84" length="13.32" shape="494.84,1000.00 497.80,1001.40 500.65,1005.15 501.60,1010.40"/>
    </edge>
    <edge id=":1_0" function="internal">
        <lane id=":1_0_0" index="0" speed="3.65" length="4.67" shape="0.00,1001.60 -1.20,1000.80 -1.60,1000.00 -1.20,999.20 0.00,998.40"/>
    </edge>
    <edge id=":2_0" function="internal">
        <lane id=":2_0_0" index="0" speed="3.65" length="4.67" shape="1000.00,998.40 1001.20,999.20 1001.60,1000.00 1001.20,1000.80 1000.00,1001.60"/>
    </edge>
    <edge id=":3_0" function="internal">
        <lane id=":3_0_0" index="0" speed="3.65" length="4.67" shape="498.40,0.00 499.20,-1.20 500.00,-1.60 500.80,-1.20 501.60,0.00"/>
    </edge>
    <edge id=":4_0" function="internal">
        <lane id=":4_0_0" index="0" speed="3.65" length="4.67" shape="501.60,2000.00 500.80,2001.20 500.00,2001.60 499.20,2001.20 498.40,2000.00"/>
    </edge>

    <edge id="1i" from="1" to="0" priority="78">
        <lane id="1i_0" index="0" speed="19.44" length="486.40" shape="0.00,995.20 486.40,995.20"/>
        <lane id="1i_1" index="1" speed="19.44" length="486.40" shape="0.00,998.40 486.40,998.40"/>
    </edge>
    <edge id="1o" from="0" to="1" priority="46">
        <lane id="1o_0" index="0" speed="14.00" length="486.40" shape="486.40,1004.80 0.00,1004.80"/>
        <lane id="1o_1" index="1" speed="14.00" length="486.40" shape="486.40,1001.60 0.00,1001.60"/>
    </edge>
    <edge id="2i" from="2" to="0" priority="78">
        <lane id="2i_0" index="0" speed="19.44" length="486.40" shape="1000.00,1004.80 513.60,1004.80"/>
        <lane id="2i_1" index="1" speed="19.44" length="486.40" shape="1000.00,1001.60 513.60,1001.60"/>
    </edge>
    <edge id="2o" from="0" to="2" priority="46">
        <lane id="2o_0" index="0" speed="14.00" length="486.40" shape="513.60,995.20 1000.00,995.20"/>
        <lane id="2o_1" index="1" speed="14.00" length="486.40" shape="513.60,998.40 1000.00,998.40"/>
    </edge>
    <edge id="3i" from="3" to="0" priority="78">
        <lane id="3i_0" index="0" speed="19.44" length="989.60" shape="508.00,0.00 508.00,989.60"/>
        <lane id="3i_1" index="1" speed="19.44" length="989.60" shape="504.80,0.00 504.80,989.60"/>
        <lane id="3i_2" index="2" speed="19.44" length="989.60" shape="501.60,0.00 501.60,989.60"/>
    </edge>
    <edge id="3o" from="0" to="3" priority="46">
        <lane id="3o_0" index="0" speed="14.00" length="989.60" shape="492.00,989.60 492.00,0.00"/>
        <lane id="3o_1" index="1" speed="14.00" length="989.60" shape="495.20,989.60 495.20,0.00"/>
        <lane id="3o_2" index="2" speed="14.00" length="989.60" shape="498.40,989.60 498.40,0.00"/>
    </edge>
    <edge id="4i" from="4" to="0" priority="78">
        <lane id="4i_0" index="0" speed="19.44" length="989.60" shape="492.00,2000.00 492.00,1010.40"/>
        <lane id="4i_1" index="1" speed="19.44" length="989.60" shape="495.20,2000.00 495.20,1010.40"/>
        <lane id="4i_2" index="2" speed="19.44" length="989.60" shape="498.40,2000.00 498.40,1010.40"/>
    </edge>
    <edge id="4o" from="0" to="4" priority="46">
        <lane id="4o_0" index="0" speed="14.00" length="989.60" shape="508.00,1010.40 508.00,2000.00"/>
        <lane id="4o_1" index="1" speed="14.00" length="989.60" shape="504.80,1010.40 504.80,2000.00"/>
        <lane id="4o_2" index="2" speed="14.00" length="989.60" shape="501.60,1010.40 501.60,2000.00"/>
    </edge>

    <tlLogic id="0" type="static" programID="0" offset="0">
        <phase duration="20" state="rrrrrGGGGgrrrrrrrr"/>
        <phase duration="5"  state="rrrrryyyyuuuuuurrr"/>
        <phase duration="20" state="rrrrrrrrrGGGGGgrrr"/>
        <phase duration="5"  state="urrrrrrrryyyyyuuuu"/>
        <phase duration="20" state="grrrrrrrrrrrrrGGGG"/>
        <phase duration="5"  state="uuuuuurrrrrrrryyyy"/>
        <phase duration="20" state="GGGGGgrrrrrrrrrrrr"/>
        <phase duration="5"  state="yyyyyuuuuurrrrrrrr"/>
    </tlLogic>

    <junction id="0" type="traffic_light" x="500.00" y="1000.00" incLanes="4i_0 4i_1 4i_2 2i_0 2i_1 3i_0 3i_1 3i_2 1i_0 1i_1" intLanes=":0_0_0 :0_1_0 :0_1_1 :0_1_2 :0_18_0 :0_5_0 :0_6_0 :0_6_1 :0_19_0 :0_9_0 :0_10_0 :0_10_1 :0_10_2 :0_20_0 :0_14_0 :0_15_0 :0_15_1 :0_21_0" shape="490.40,1010.40 509.60,1010.40 510.04,1008.18 510.60,1007.40 511.38,1006.84 512.38,1006.51 513.60,1006.40 513.60,993.60 511.38,993.16 510.60,992.60 510.04,991.82 509.71,990.82 509.60,989.60 490.40,989.60 489.96,991.82 489.40,992.60 488.62,993.16 487.62,993.49 486.40,993.60 486.40,1006.40 488.62,1006.84 489.40,1007.40 489.96,1008.18 490.29,1009.18">
        <request index="0"  response="000000000000000000" foes="000000000011000000" cont="0"/>
        <request index="1"  response="100000000100000000" foes="111110000111000000" cont="0"/>
        <request index="2"  response="100000000100000000" foes="111110000111000000" cont="0"/>
        <request index="3"  response="100000000100000000" foes="111110000111000000" cont="0"/>
        <request index="4"  response="100001110100000000" foes="111001110111000000" cont="1"/>
        <request index="5"  response="000001110000000000" foes="000001110000000000" cont="0"/>
        <request index="6"  response="000011110000011111" foes="100011110000011111" cont="0"/>
        <request index="7"  response="000011110000011111" foes="100011110000011111" cont="0"/>
        <request index="8"  response="011011110000011110" foes="011011110000011110" cont="1"/>
        <request index="9"  response="000000000000000000" foes="011000000000000000" cont="0"/>
        <request index="10" response="100000000100000000" foes="111000000111110000" cont="0"/>
        <request index="11" response="100000000100000000" foes="111000000111110000" cont="0"/>
        <request index="12" response="100000000100000000" foes="111000000111110000" cont="0"/>
        <request index="13" response="100000000100001110" foes="111000000111001110" cont="1"/>
        <request index="14" response="000000000000001110" foes="000000000000001110" cont="0"/>
        <request index="15" response="000011111000011110" foes="000011111100011110" cont="0"/>
        <request index="16" response="000011111000011110" foes="000011111100011110" cont="0"/>
        <request index="17" response="000011110011011110" foes="000011110011011110" cont="1"/>
    </junction>
    <junction id="1" type="priority" x="0.00" y="1000.00" incLanes="1o_0 1o_1" intLanes=":1_0_0" shape="0.00,1000.00 0.00,1006.40 0.00,1000.00">
        <request index="0" response="0" foes="0" cont="0"/>
    </junction>
    <junction id="2" type="priority" x="1000.00" y="1000.00" incLanes="2o_0 2o_1" intLanes=":2_0_0" shape="1000.00,1000.00 1000.00,993.60 1000.00,1000.00">
        <request index="0" response="0" foes="0" cont="0"/>
    </junction>
    <junction id="3" type="priority" x="500.00" y="0.00" incLanes="3o_0 3o_1 3o_2" intLanes=":3_0_0" shape="500.00,0.00 490.40,0.00 500.00,0.00">
        <request index="0" response="0" foes="0" cont="0"/>
    </junction>
    <junction id="4" type="priority" x="500.00" y="2000.00" incLanes="4o_0 4o_1 4o_2" intLanes=":4_0_0" shape="500.00,2000.00 509.60,2000.00 500.00,2000.00">
        <request index="0" response="0" foes="0" cont="0"/>
    </junction>

    <junction id=":0_18_0" type="internal" x="500.00" y="1004.29" incLanes=":0_4_0 3i_0 3i_1 3i_2" intLanes=":0_6_0 :0_6_1 :0_8_0 :0_9_0 :0_10_0 :0_10_1 :0_10_2 :0_15_0 :0_15_1 :0_17_0"/>
    <junction id=":0_19_0" type="internal" x="505.16" y="1000.00" incLanes=":0_8_0 1i_0 1i_1" intLanes=":0_1_0 :0_1_1 :0_1_2 :0_4_0 :0_10_0 :0_10_1 :0_10_2 :0_13_0 :0_14_0 :0_15_0 :0_15_1"/>
    <junction id=":0_20_0" type="internal" x="500.00" y="995.71" incLanes=":0_13_0 4i_0 4i_1 4i_2" intLanes=":0_0_0 :0_1_0 :0_1_1 :0_1_2 :0_6_0 :0_6_1 :0_8_0 :0_15_0 :0_15_1 :0_17_0"/>
    <junction id=":0_21_0" type="internal" x="494.84" y="1000.00" incLanes=":0_17_0 2i_0 2i_1" intLanes=":0_1_0 :0_1_1 :0_1_2 :0_4_0 :0_5_0 :0_6_0 :0_6_1 :0_10_0 :0_10_1 :0_10_2 :0_13_0"/>

    <connection from="1i" to="3o" fromLane="0" toLane="0" via=":0_14_0" tl="0" linkIndex="14" dir="r" state="o"/>
    <connection from="1i" to="2o" fromLane="0" toLane="0" via=":0_15_0" tl="0" linkIndex="15" dir="s" state="o"/>
    <connection from="1i" to="2o" fromLane="1" toLane="1" via=":0_15_1" tl="0" linkIndex="16" dir="s" state="o"/>
    <connection from="1i" to="4o" fromLane="1" toLane="2" via=":0_17_0" tl="0" linkIndex="17" dir="l" state="o"/>
    <connection from="1o" to="1i" fromLane="1" toLane="1" via=":1_0_0" dir="t" state="M"/>
    <connection from="2i" to="4o" fromLane="0" toLane="0" via=":0_5_0" tl="0" linkIndex="5" dir="r" state="o"/>
    <connection from="2i" to="1o" fromLane="0" toLane="0" via=":0_6_0" tl="0" linkIndex="6" dir="s" state="o"/>
    <connection from="2i" to="1o" fromLane="1" toLane="1" via=":0_6_1" tl="0" linkIndex="7" dir="s" state="o"/>
    <connection from="2i" to="3o" fromLane="1" toLane="2" via=":0_8_0" tl="0" linkIndex="8" dir="l" state="o"/>
    <connection from="2o" to="2i" fromLane="1" toLane="1" via=":2_0_0" dir="t" state="M"/>
    <connection from="3i" to="2o" fromLane="0" toLane="0" via=":0_9_0" tl="0" linkIndex="9" dir="r" state="O"/>
    <connection from="3i" to="4o" fromLane="0" toLane="0" via=":0_10_0" tl="0" linkIndex="10" dir="s" state="O"/>
    <connection from="3i" to="4o" fromLane="1" toLane="1" via=":0_10_1" tl="0" linkIndex="11" dir="s" state="O"/>
    <connection from="3i" to="4o" fromLane="2" toLane="2" via=":0_10_2" tl="0" linkIndex="12" dir="s" state="O"/>
    <connection from="3i" to="1o" fromLane="2" toLane="1" via=":0_13_0" tl="0" linkIndex="13" dir="l" state="o"/>
    <connection from="3o" to="3i" fromLane="2" toLane="2" via=":3_0_0" dir="t" state="M"/>
    <connection from="4i" to="1o" fromLane="0" toLane="0" via=":0_0_0" tl="0" linkIndex="0" dir="r" state="O"/>
    <connection from="4i" to="3o" fromLane="0" toLane="0" via=":0_1_0" tl="0" linkIndex="1" dir="s" state="O"/>
    <connection from="4i" to="3o" fromLane="1" toLane="1" via=":0_1_1" tl="0" linkIndex="2" dir="s" state="O"/>
    <connection from="4i" to="3o" fromLane="2" toLane="2" via=":0_1_2" tl="0" linkIndex="3" dir="s" state="O"/>
    <connection from="4i" to="2o" fromLane="2" toLane="1" via=":0_4_0" tl="0" linkIndex="4" dir="l" state="o"/>
    <connection from="4o" to="4i" fromLane="2" toLane="2" via=":4_0_0" dir="t" state="M"/>

    <connection from=":0_0" to="1o" fromLane="0" toLane="0" dir="r" state="M"/>
    <connection from=":0_1" to="3o" fromLane="0" toLane="0" dir="s" state="M"/>
    <connection from=":0_1" to="3o" fromLane="1" toLane="1" dir="s" state="M"/>
    <connection from=":0_1" to="3o" fromLane="2" toLane="2" dir="s" state="M"/>
    <connection from=":0_4" to="2o" fromLane="0" toLane="1" via=":0_18_0" dir="l" state="m"/>
    <connection from=":0_18" to="2o" fromLane="0" toLane="1" dir="l" state="M"/>
    <connection from=":0_5" to="4o" fromLane="0" toLane="0" dir="r" state="M"/>
    <connection from=":0_6" to="1o" fromLane="0" toLane="0" dir="s" state="M"/>
    <connection from=":0_6" to="1o" fromLane="1" toLane="1" dir="s" state="M"/>
    <connection from=":0_8" to="3o" fromLane="0" toLane="2" via=":0_19_0" dir="l" state="m"/>
    <connection from=":0_19" to="3o" fromLane="0" toLane="2" dir="l" state="M"/>
    <connection from=":0_9" to="2o" fromLane="0" toLane="0" dir="r" state="M"/>
    <connection from=":0_10" to="4o" fromLane="0" toLane="0" dir="s" state="M"/>
    <connection from=":0_10" to="4o" fromLane="1" toLane="1" dir="s" state="M"/>
    <connection from=":0_10" to="4o" fromLane="2" toLane="2" dir="s" state="M"/>
    <connection from=":0_13" to="1o" fromLane="0" toLane="1" via=":0_20_0" dir="l" state="m"/>
    <connection from=":0_20" to="1o" fromLane="0" toLane="1" dir="l" state="M"/>
    <connection from=":0_14" to="3o" fromLane="0" toLane="0" dir="r" state="M"/>
    <connection from=":0_15" to="2o" fromLane="0" toLane="0" dir="s" state="M"/>
    <connection from=":0_15" to="2o" fromLane="1" toLane="1" dir="s" state="M"/>
    <connection from=":0_17" to="4o" fromLane="0" toLane="2" via=":0_21_0" dir="l" state="m"/>
    <connection from=":0_21" to="4o" fromLane="0" toLane="2" dir="l" state="M"/>
    <connection from=":1_0" to="1i" fromLane="0" toLane="1" dir="t" state="M"/>
    <connection from=":2_0" to="2i" fromLane="0" toLane="1" dir="t" state="M"/>
    <connection from=":3_0" to="3i" fromLane="0" toLane="2" dir="t" state="M"/>
    <connection from=":4_0" to="4i" fromLane="0" toLane="2" dir="t" state="M"/>

</net>
